CRYSTAL
PRIMVEC
1.8496216339565233e+01 0.00000 0.00000
0.00000 2.1357590965275090e+01 0.00000
0.00000 0.00000 30.2041948027
PRIMCOORD
588

3 0.166667 4.15861e-17 0
4 0.166667 4.15861e-17 0.0625
3 0 0 0
3 0 0.0833333 0.0833333
4 0 0 0.0625
3 0.166667 0.0833333 0.0833333
4 0.416667 0.125 0.0625
4 0.25 0.125 0.0625
3 0.333333 0 0
3 0.333333 0.0833333 0.0833333
4 0.333333 0 0.0625
4 0.583333 0.125 0.0625
4 0.5 0 0.0625
3 0.666667 0 0
3 0.666667 0.0833333 0.0833333
4 0.666667 0 0.0625
3 0.5 0.0833333 0.0833333
4 0.916667 0.125 0.0625
3 0.75 0.125 0
4 0.75 0.125 0.0625
3 0.833333 4.15861e-17 0
4 0.833333 0 0.0625
3 0.833333 0.0833333 0.0833333
4 0.0833333 0.375 0.0625
4 0 0.25 0.0625
3 0.0833333 0.208333 0.0833333
3 0.166667 0.333333 0.0833333
4 0.166667 0.25 0.0625
3 0 0.333333 0.0833333
4 0.416667 0.375 0.0625
4 0.25 0.375 0.0625
4 0.333333 0.25 0.0625
3 0.416667 0.208333 0.0833333
3 0.25 0.208333 0.0833333
3 0.333333 0.333333 0.0833333
4 0.583333 0.375 0.0625
4 0.666667 0.25 0.0625
3 0.583333 0.208333 0.0833333
3 0.5 0.333333 0.0833333
4 0.5 0.25 0.0625
3 0.666667 0.333333 0.0833333
4 0.916667 0.375 0.0625
4 0.75 0.375 0.0625
3 0.916667 0.208333 0.0833333
3 0.75 0.208333 0.0833333
3 0.833333 0.333333 0.0833333
4 0.833333 0.25 0.0625
3 0.166667 0.5 0
4 0.166667 0.5 0.0625
3 0 0.5 0
3 0.0833333 0.458333 0.0833333
3 0 0.583333 0.0833333
4 0 0.5 0.0625
3 0.166667 0.583333 0.0833333
3 0.333333 0.5 0
3 0.416667 0.458333 0.0833333
3 0.25 0.458333 0.0833333
3 0.333333 0.583333 0.0833333
4 0.333333 0.5 0.0625
3 0.5 0.5 0
4 0.5 0.5 0.0625
3 0.583333 0.458333 0.0833333
3 0.666667 0.583333 0.0833333
4 0.666667 0.5 0.0625
3 0.5 0.583333 0.0833333
4 0.833333 0.5 0.0625
3 0.916667 0.458333 0.0833333
3 0.75 0.458333 0.0833333
3 0.833333 0.583333 0.0833333
3 0.0833333 0.625 0
4 0.0833333 0.625 0.0625
4 0 0.75 0.0625
3 0.0833333 0.708333 0.0833333
4 0.166667 0.75 0.0625
3 0.416667 0.625 0
4 0.416667 0.625 0.0625
4 0.25 0.625 0.0625
4 0.333333 0.75 0.0625
3 0.416667 0.708333 0.0833333
3 0.25 0.708333 0.0833333
4 0.583333 0.625 0.0625
4 0.666667 0.75 0.0625
3 0.583333 0.708333 0.0833333
4 0.5 0.75 0.0625
4 0.916667 0.625 0.0625
4 0.75 0.625 0.0625
3 0.916667 0.708333 0.0833333
3 0.75 0.708333 0.0833333
4 0.833333 0.75 0.0625
4 0.0833333 0.875 0.0625
3 0.0833333 0.958333 0.0833333
3 0.166667 0.833333 0.0833333
3 0 0.833333 0.0833333
4 0.416667 0.875 0.0625
4 0.25 0.875 0.0625
3 0.416667 0.958333 0.0833333
3 0.25 0.958333 0.0833333
3 0.333333 0.833333 0.0833333
4 0.583333 0.875 0.0625
3 0.583333 0.958333 0.0833333
3 0.5 0.833333 0.0833333
3 0.666667 0.833333 0.0833333
4 0.916667 0.875 0.0625
4 0.75 0.875 0.0625
3 0.916667 0.958333 0.0833333
3 0.75 0.958333 0.0833333
3 0.833333 0.833333 0.0833333
3 0 0 0.25
3 0.166667 0 0.25
4 0 0.166667 0.229167
3 0.0833333 0.125 0.25
3 0 0.166667 0.166667
4 0 0.0833333 0.145833
3 0.0833333 0.0416667 0.166667
3 0.166667 0.166667 0.166667
4 0.166667 0.0833333 0.145833
4 0.0833333 0.0416667 0.229167
4 0.166667 0.166667 0.229167
3 0.333333 0 0.25
4 0.333333 0.166667 0.229167
3 0.25 0.125 0.25
3 0.416667 0.125 0.25
4 0.333333 0.0833333 0.145833
3 0.416667 0.0416667 0.166667
4 0.416667 0.0416667 0.229167
3 0.25 0.0416667 0.166667
4 0.25 0.0416667 0.229167
3 0.333333 0.166667 0.166667
3 0.666667 2.0793e-17 0.25
3 0.5 2.0793e-17 0.25
4 0.666667 0.0833333 0.145833
3 0.583333 0.0416667 0.166667
3 0.5 0.166667 0.166667
4 0.5 0.0833333 0.145833
4 0.583333 0.0416667 0.229167
4 0.5 0.166667 0.229167
3 0.666667 0.166667 0.166667
3 0.583333 0.125 0.25
4 0.666667 0.166667 0.229167
3 0.833333 0 0.25
3 0.916667 0.0416667 0.166667
3 0.75 0.0416667 0.166667
3 0.833333 0.166667 0.166667
4 0.833333 0.0833333 0.145833
4 0.916667 0.0416667 0.229167
4 0.75 0.0416667 0.229167
4 0.833333 0.166667 0.229167
3 0.916667 0.125 0.25
3 0.75 0.125 0.25
3 0.166667 0.25 0.25
3 0 0.25 0.25
4 0.0833333 0.208333 0.145833
4 0.166667 0.333333 0.145833
3 0.0833333 0.291667 0.166667
4 0 0.333333 0.145833
4 0.0833333 0.291667 0.229167
3 0.0833333 0.375 0.25
3 0.333333 0.25 0.25
4 0.416667 0.208333 0.145833
4 0.25 0.208333 0.145833
3 0.416667 0.291667 0.166667
3 0.25 0.291667 0.166667
4 0.333333 0.333333 0.145833
4 0.416667 0.291667 0.229167
4 0.25 0.291667 0.229167
3 0.416667 0.375 0.25
3 0.25 0.375 0.25
3 0.5 0.25 0.25
4 0.583333 0.208333 0.145833
4 0.5 0.333333 0.145833
3 0.583333 0.291667 0.166667
4 0.666667 0.333333 0.145833
4 0.583333 0.291667 0.229167
3 0.583333 0.375 0.25
3 0.666667 0.25 0.25
4 0.916667 0.208333 0.145833
4 0.75 0.208333 0.145833
4 0.833333 0.333333 0.145833
3 0.916667 0.291667 0.166667
4 0.916667 0.291667 0.229167
3 0.75 0.291667 0.166667
4 0.75 0.291667 0.229167
3 0.916667 0.375 0.25
3 0.75 0.375 0.25
3 0.833333 0.25 0.25
4 0.0833333 0.458333 0.145833
4 0 0.583333 0.145833
3 0.0833333 0.541667 0.166667
4 0.166667 0.583333 0.145833
4 0.0833333 0.541667 0.229167
3 0 0.416667 0.166667
4 0 0.416667 0.229167
3 0.166667 0.416667 0.166667
3 0.166667 0.5 0.25
4 0.166667 0.416667 0.229167
3 0 0.5 0.25
4 0.416667 0.458333 0.145833
4 0.25 0.458333 0.145833
4 0.333333 0.583333 0.145833
3 0.416667 0.541667 0.166667
4 0.416667 0.541667 0.229167
3 0.25 0.541667 0.166667
4 0.25 0.541667 0.229167
3 0.333333 0.416667 0.166667
4 0.333333 0.416667 0.229167
3 0.333333 0.5 0.25
4 0.583333 0.458333 0.145833
4 0.666667 0.583333 0.145833
3 0.583333 0.541667 0.166667
4 0.5 0.583333 0.145833
4 0.583333 0.541667 0.229167
3 0.666667 0.416667 0.166667
4 0.666667 0.416667 0.229167
3 0.5 0.416667 0.166667
3 0.5 0.5 0.25
4 0.5 0.416667 0.229167
3 0.666667 0.5 0.25
4 0.916667 0.458333 0.145833
4 0.75 0.458333 0.145833
3 0.916667 0.541667 0.166667
3 0.75 0.541667 0.166667
4 0.833333 0.583333 0.145833
4 0.916667 0.541667 0.229167
4 0.75 0.541667 0.229167
3 0.833333 0.416667 0.166667
3 0.833333 0.5 0.25
4 0.833333 0.416667 0.229167
4 0.0833333 0.708333 0.145833
3 0.0833333 0.791667 0.166667
4 0.0833333 0.791667 0.229167
3 0.166667 0.666667 0.166667
4 0.166667 0.666667 0.229167
3 0 0.666667 0.166667
3 0.0833333 0.625 0.25
3 0 0.75 0.25
4 0 0.666667 0.229167
3 0.166667 0.75 0.25
1 0.333333 0.75 0.25
4 0.416667 0.708333 0.145833
4 0.25 0.708333 0.145833
3 0.416667 0.791667 0.166667
3 0.25 0.791667 0.166667
4 0.416667 0.791667 0.229167
4 0.25 0.791667 0.229167
3 0.333333 0.666667 0.166667
3 0.416667 0.625 0.25
3 0.25 0.625 0.25
4 0.333333 0.666667 0.229167
4 0.583333 0.708333 0.145833
3 0.583333 0.791667 0.166667
4 0.583333 0.791667 0.229167
3 0.5 0.666667 0.166667
4 0.5 0.666667 0.229167
3 0.666667 0.666667 0.166667
3 0.583333 0.625 0.25
3 0.666667 0.75 0.25
4 0.666667 0.666667 0.229167
3 0.5 0.75 0.25
1 0.833333 0.75 0.25
4 0.916667 0.708333 0.145833
4 0.75 0.708333 0.145833
3 0.916667 0.791667 0.166667
4 0.916667 0.791667 0.229167
3 0.75 0.791667 0.166667
4 0.75 0.791667 0.229167
3 0.833333 0.666667 0.166667
4 0.833333 0.666667 0.229167
3 0.916667 0.625 0.25
3 0.75 0.625 0.25
4 0.0833333 0.958333 0.145833
4 0.166667 0.833333 0.145833
3 0 0.916667 0.166667
4 0 0.833333 0.145833
4 0 0.916667 0.229167
3 0.166667 0.916667 0.166667
3 0.0833333 0.875 0.25
4 0.166667 0.916667 0.229167
4 0.416667 0.958333 0.145833
4 0.25 0.958333 0.145833
3 0.333333 0.916667 0.166667
4 0.333333 0.833333 0.145833
4 0.333333 0.916667 0.229167
3 0.416667 0.875 0.25
3 0.25 0.875 0.25
4 0.583333 0.958333 0.145833
4 0.5 0.833333 0.145833
3 0.666667 0.916667 0.166667
4 0.666667 0.833333 0.145833
4 0.666667 0.916667 0.229167
3 0.5 0.916667 0.166667
3 0.583333 0.875 0.25
4 0.5 0.916667 0.229167
1 0.916667 0.875 0.25
4 0.916667 0.958333 0.145833
4 0.75 0.958333 0.145833
4 0.833333 0.833333 0.145833
3 0.833333 0.916667 0.166667
3 0.75 0.875 0.25
4 0.833333 0.916667 0.229167
2 0.0833333 0.125 0.3125
2 0.166667 0 0.3125
1 0 0.0833333 0.333333
2 0 0 0.3125
2 0 0.0833333 0.395833
1 0.166667 0.0833333 0.333333
1 0.0833333 0.0416667 0.416667
1 0.166667 0.166667 0.416667
2 0.166667 0.0833333 0.395833
1 0 0.166667 0.416667
2 0.416667 0.125 0.3125
2 0.25 0.125 0.3125
1 0.333333 0.0833333 0.333333
2 0.333333 0 0.3125
2 0.333333 0.0833333 0.395833
1 0.416667 0.0416667 0.416667
1 0.25 0.0416667 0.416667
1 0.333333 0.166667 0.416667
2 0.583333 0.125 0.3125
2 0.5 2.0793e-17 0.3125
1 0.666667 0.0833333 0.333333
2 0.666667 0 0.3125
2 0.666667 0.0833333 0.395833
1 0.5 0.0833333 0.333333
1 0.583333 0.0416667 0.416667
1 0.5 0.166667 0.416667
2 0.5 0.0833333 0.395833
1 0.666667 0.166667 0.416667
2 0.916667 0.125 0.3125
2 0.75 0.125 0.3125
2 0.833333 0 0.3125
1 0.833333 0.0833333 0.333333
1 0.916667 0.0416667 0.416667
1 0.75 0.0416667 0.416667
1 0.833333 0.166667 0.416667
2 0.833333 0.0833333 0.395833
2 0.0833333 0.375 0.3125
2 0 0.25 0.3125
1 0.0833333 0.208333 0.333333
1 0.166667 0.333333 0.333333
2 0.166667 0.25 0.3125
2 0.0833333 0.208333 0.395833
2 0.166667 0.333333 0.395833
1 0 0.333333 0.333333
1 0.0833333 0.291667 0.416667
2 0 0.333333 0.395833
2 0.416667 0.375 0.3125
2 0.25 0.375 0.3125
2 0.333333 0.25 0.3125
1 0.416667 0.208333 0.333333
2 0.416667 0.208333 0.395833
1 0.25 0.208333 0.333333
2 0.25 0.208333 0.395833
1 0.333333 0.333333 0.333333
1 0.416667 0.291667 0.416667
1 0.25 0.291667 0.416667
2 0.333333 0.333333 0.395833
2 0.583333 0.375 0.3125
2 0.666667 0.25 0.3125
1 0.583333 0.208333 0.333333
1 0.5 0.333333 0.333333
2 0.5 0.25 0.3125
2 0.583333 0.208333 0.395833
2 0.5 0.333333 0.395833
1 0.666667 0.333333 0.333333
1 0.583333 0.291667 0.416667
2 0.666667 0.333333 0.395833
2 0.916667 0.375 0.3125
2 0.75 0.375 0.3125
1 0.916667 0.208333 0.333333
1 0.75 0.208333 0.333333
1 0.833333 0.333333 0.333333
2 0.833333 0.25 0.3125
2 0.916667 0.208333 0.395833
2 0.75 0.208333 0.395833
2 0.833333 0.333333 0.395833
1 0.916667 0.291667 0.416667
1 0.75 0.291667 0.416667
2 0.166667 0.5 0.3125
1 0.0833333 0.458333 0.333333
1 0 0.583333 0.333333
2 0 0.5 0.3125
2 0.0833333 0.458333 0.395833
2 0 0.583333 0.395833
1 0.166667 0.583333 0.333333
1 0.0833333 0.541667 0.416667
2 0.166667 0.583333 0.395833
1 0 0.416667 0.416667
1 0.166667 0.416667 0.416667
1 0.416667 0.458333 0.333333
1 0.25 0.458333 0.333333
1 0.333333 0.583333 0.333333
2 0.333333 0.5 0.3125
2 0.416667 0.458333 0.395833
2 0.25 0.458333 0.395833
2 0.333333 0.583333 0.395833
1 0.416667 0.541667 0.416667
1 0.25 0.541667 0.416667
1 0.333333 0.416667 0.416667
2 0.5 0.5 0.3125
1 0.583333 0.458333 0.333333
1 0.666667 0.583333 0.333333
2 0.666667 0.5 0.3125
2 0.583333 0.458333 0.395833
2 0.666667 0.583333 0.395833
1 0.5 0.583333 0.333333
1 0.583333 0.541667 0.416667
2 0.5 0.583333 0.395833
1 0.666667 0.416667 0.416667
1 0.5 0.416667 0.416667
2 0.833333 0.5 0.3125
1 0.916667 0.458333 0.333333
2 0.916667 0.458333 0.395833
1 0.75 0.458333 0.333333
2 0.75 0.458333 0.395833
1 0.833333 0.583333 0.333333
1 0.916667 0.541667 0.416667
1 0.75 0.541667 0.416667
2 0.833333 0.583333 0.395833
1 0.833333 0.416667 0.416667
2 0.0833333 0.625 0.3125
2 0 0.75 0.3125
1 0.0833333 0.708333 0.333333
2 0.166667 0.75 0.3125
2 0.0833333 0.708333 0.395833
1 0.0833333 0.791667 0.416667
1 0.166667 0.666667 0.416667
1 0 0.666667 0.416667
2 0.416667 0.625 0.3125
2 0.25 0.625 0.3125
2 0.333333 0.75 0.3125
1 0.416667 0.708333 0.333333
2 0.416667 0.708333 0.395833
1 0.25 0.708333 0.333333
2 0.25 0.708333 0.395833
1 0.416667 0.791667 0.416667
1 0.25 0.791667 0.416667
1 0.333333 0.666667 0.416667
2 0.583333 0.625 0.3125
2 0.666667 0.75 0.3125
1 0.583333 0.708333 0.333333
2 0.5 0.75 0.3125
2 0.583333 0.708333 0.395833
1 0.583333 0.791667 0.416667
1 0.5 0.666667 0.416667
1 0.666667 0.666667 0.416667
2 0.916667 0.625 0.3125
2 0.75 0.625 0.3125
1 0.916667 0.708333 0.333333
1 0.75 0.708333 0.333333
2 0.833333 0.75 0.3125
2 0.916667 0.708333 0.395833
2 0.75 0.708333 0.395833
1 0.916667 0.791667 0.416667
1 0.75 0.791667 0.416667
1 0.833333 0.666667 0.416667
2 0.0833333 0.875 0.3125
1 0.0833333 0.958333 0.333333
2 0.0833333 0.958333 0.395833
1 0.166667 0.833333 0.333333
2 0.166667 0.833333 0.395833
1 0 0.833333 0.333333
1 0 0.916667 0.416667
2 0 0.833333 0.395833
1 0.166667 0.916667 0.416667
2 0.416667 0.875 0.3125
2 0.25 0.875 0.3125
1 0.416667 0.958333 0.333333
1 0.25 0.958333 0.333333
2 0.416667 0.958333 0.395833
2 0.25 0.958333 0.395833
1 0.333333 0.833333 0.333333
1 0.333333 0.916667 0.416667
2 0.333333 0.833333 0.395833
2 0.583333 0.875 0.3125
1 0.583333 0.958333 0.333333
2 0.583333 0.958333 0.395833
1 0.5 0.833333 0.333333
2 0.5 0.833333 0.395833
1 0.666667 0.833333 0.333333
1 0.666667 0.916667 0.416667
2 0.666667 0.833333 0.395833
1 0.5 0.916667 0.416667
2 0.916667 0.875 0.3125
2 0.75 0.875 0.3125
1 0.916667 0.958333 0.333333
2 0.916667 0.958333 0.395833
1 0.75 0.958333 0.333333
2 0.75 0.958333 0.395833
1 0.833333 0.833333 0.333333
2 0.833333 0.833333 0.395833
1 0.833333 0.916667 0.416667
2 0.0833333 0.0416667 0.479167
2 0.166667 0.166667 0.479167
1 0.0833333 0.125 0.5
2 0 0.166667 0.479167
1 0.166667 0 0.5
1 0 0 0.5
2 0.416667 0.0416667 0.479167
2 0.25 0.0416667 0.479167
1 0.416667 0.125 0.5
1 0.25 0.125 0.5
2 0.333333 0.166667 0.479167
1 0.333333 0 0.5
2 0.583333 0.0416667 0.479167
2 0.5 0.166667 0.479167
1 0.583333 0.125 0.5
2 0.666667 0.166667 0.479167
1 0.5 0 0.5
1 0.666667 0 0.5
2 0.916667 0.0416667 0.479167
2 0.75 0.0416667 0.479167
2 0.833333 0.166667 0.479167
1 0.916667 0.125 0.5
1 0.75 0.125 0.5
1 0.833333 0 0.5
2 0.0833333 0.291667 0.479167
1 0.0833333 0.375 0.5
1 0 0.25 0.5
1 0.166667 0.25 0.5
2 0.416667 0.291667 0.479167
2 0.25 0.291667 0.479167
1 0.416667 0.375 0.5
1 0.25 0.375 0.5
1 0.333333 0.25 0.5
2 0.583333 0.291667 0.479167
1 0.583333 0.375 0.5
1 0.666667 0.25 0.5
1 0.5 0.25 0.5
2 0.916667 0.291667 0.479167
2 0.75 0.291667 0.479167
1 0.916667 0.375 0.5
1 0.75 0.375 0.5
1 0.833333 0.25 0.5
2 0.0833333 0.541667 0.479167
2 0 0.416667 0.479167
1 0.166667 0.5 0.5
2 0.166667 0.416667 0.479167
1 0 0.5 0.5
2 0.416667 0.541667 0.479167
2 0.25 0.541667 0.479167
2 0.333333 0.416667 0.479167
1 0.333333 0.5 0.5
2 0.583333 0.541667 0.479167
2 0.666667 0.416667 0.479167
1 0.5 0.5 0.5
2 0.5 0.416667 0.479167
1 0.666667 0.5 0.5
2 0.916667 0.541667 0.479167
2 0.75 0.541667 0.479167
1 0.833333 0.5 0.5
2 0.833333 0.416667 0.479167
2 0.0833333 0.791667 0.479167
2 0.166667 0.666667 0.479167
1 0.0833333 0.625 0.5
1 0 0.75 0.5
2 0 0.666667 0.479167
1 0.166667 0.75 0.5
2 0.416667 0.791667 0.479167
2 0.25 0.791667 0.479167
1 0.416667 0.625 0.5
1 0.25 0.625 0.5
1 0.333333 0.75 0.5
2 0.333333 0.666667 0.479167
2 0.583333 0.791667 0.479167
2 0.5 0.666667 0.479167
1 0.583333 0.625 0.5
1 0.666667 0.75 0.5
2 0.666667 0.666667 0.479167
1 0.5 0.75 0.5
2 0.916667 0.791667 0.479167
2 0.75 0.791667 0.479167
2 0.833333 0.666667 0.479167
1 0.916667 0.625 0.5
1 0.75 0.625 0.5
1 0.833333 0.75 0.5
2 0 0.916667 0.479167
1 0.0833333 0.875 0.5
2 0.166667 0.916667 0.479167
2 0.333333 0.916667 0.479167
1 0.416667 0.875 0.5
1 0.25 0.875 0.5
2 0.666667 0.916667 0.479167
1 0.583333 0.875 0.5
2 0.5 0.916667 0.479167
1 0.916667 0.875 0.5
1 0.75 0.875 0.5
2 0.833333 0.916667 0.479167
