CRYSTAL
PRIMVEC
       18.0000000000         0.0000000000         0.0000000000
        0.0000000000        18.0000000000         0.0000000000
        0.0000000000         0.0000000000        18.0000000000
PRIMCOORD
17
Ag   -2.863237   -1.653091   -2.307278 1
Ag   -1.432001    0.826350   -2.306807 1
Ag   -0.000360   -1.653324   -2.306807 1
Ag    1.430984    0.826180   -2.306208 1
Ag   -2.862846    0.000027    0.000173 1
Ag   -1.431280    2.479298    0.000000 1
Ag   -1.431400   -2.479311    0.000173 1
Ag   -0.000044   -0.000027    0.000230 0
Ag    1.431180    2.479179    0.000367 1
Ag    1.431495   -2.479172    0.000000 1
Ag    2.862621   -0.000153    0.000367 1
Ag   -2.861681    1.653190    2.306888 1
Ag   -1.430426   -0.825855    2.307026 1
Ag    0.000896    1.653350    2.306845 1
Ag    0.000863   -3.304884    2.306888 1
Ag    1.432289   -0.825897    2.306845 1
Ag    2.863458    1.653219    2.306747 1
